/CLEAR
/PREP7
ET,1,LINK180
MP,EX,1,2.0E11
MP,PRXY,1,0.3
R,1,0.01
N,1,0,0,0
N,2,1,0,0
TYPE,1
REAL,1
MAT,1
E,1,2
/SOLU
ANTYPE,STATIC
D,1,ALL,0
F,2,FX,1000
SOLVE
FINISH
/POST1
SET,LAST
